136887
  -OEChem-03301715352D

 18 18  0     0  0  0  0  0  0999 V2000
    3.7320    1.5000    0.0000 O   0  0  0  0  0  0  0  0  0  0  0  0
    4.5981   -1.0000    0.0000 C   0  0  0  0  0  0  0  0  0  0  0  0
    4.5981    0.0000    0.0000 C   0  0  0  0  0  0  0  0  0  0  0  0
    3.7320   -1.5000    0.0000 C   0  0  0  0  0  0  0  0  0  0  0  0
    2.8660    0.0000    0.0000 C   0  0  0  0  0  0  0  0  0  0  0  0
    3.7320    0.5000    0.0000 C   0  0  0  0  0  0  0  0  0  0  0  0
    2.8660   -1.0000    0.0000 C   0  0  0  0  0  0  0  0  0  0  0  0
    2.0000    0.5000    0.0000 C   0  0  0  0  0  0  0  0  0  0  0  0
    4.8101   -1.5826    0.0000 H   0  0  0  0  0  0  0  0  0  0  0  0
    5.2087   -0.8923    0.0000 H   0  0  0  0  0  0  0  0  0  0  0  0
    5.2087   -0.1077    0.0000 H   0  0  0  0  0  0  0  0  0  0  0  0
    4.8101    0.5826    0.0000 H   0  0  0  0  0  0  0  0  0  0  0  0
    3.3335   -1.9750    0.0000 H   0  0  0  0  0  0  0  0  0  0  0  0
    4.1306   -1.9750    0.0000 H   0  0  0  0  0  0  0  0  0  0  0  0
    2.3291   -1.3100    0.0000 H   0  0  0  0  0  0  0  0  0  0  0  0
    2.3100    1.0369    0.0000 H   0  0  0  0  0  0  0  0  0  0  0  0
    1.4631    0.8100    0.0000 H   0  0  0  0  0  0  0  0  0  0  0  0
    1.6900   -0.0369    0.0000 H   0  0  0  0  0  0  0  0  0  0  0  0
  1  6  2  0  0  0  0
  2  3  1  0  0  0  0
  2  4  1  0  0  0  0
  2  9  1  0  0  0  0
  2 10  1  0  0  0  0
  3  6  1  0  0  0  0
  3 11  1  0  0  0  0
  3 12  1  0  0  0  0
  4  7  1  0  0  0  0
  4 13  1  0  0  0  0
  4 14  1  0  0  0  0
  5  6  1  0  0  0  0
  5  7  2  0  0  0  0
  5  8  1  0  0  0  0
  7 15  1  0  0  0  0
  8 16  1  0  0  0  0
  8 17  1  0  0  0  0
  8 18  1  0  0  0  0
M  END
> <PUBCHEM_COMPOUND_CID>
136887

> <PUBCHEM_COMPOUND_CANONICALIZED>
1

> <PUBCHEM_CACTVS_COMPLEXITY>
133

> <PUBCHEM_CACTVS_HBOND_ACCEPTOR>
1

> <PUBCHEM_CACTVS_HBOND_DONOR>
0

> <PUBCHEM_CACTVS_ROTATABLE_BOND>
0

> <PUBCHEM_CACTVS_SUBSKEYS>
AAADccBgIAAAAAAAAAAAAAAAAAAAAAAAAAAgAAAAAAAAAAAAAAAAGgAAAAAADASAgAACAAAAAACIAqBSAAAAAAAgAAAACAEAAEgAABIAAQAAAAAAgAAIAYMIgAAAAAAAAAAAAAAAAAAAAAAAAAAAAAAAAA==

> <PUBCHEM_IUPAC_OPENEYE_NAME>
2-methylcyclohex-2-en-1-one

> <PUBCHEM_IUPAC_CAS_NAME>
2-methyl-1-cyclohex-2-enone

> <PUBCHEM_IUPAC_NAME>
2-methylcyclohex-2-en-1-one

> <PUBCHEM_IUPAC_SYSTEMATIC_NAME>
2-methylcyclohex-2-en-1-one

> <PUBCHEM_IUPAC_TRADITIONAL_NAME>
2-methylcyclohex-2-en-1-one

> <PUBCHEM_IUPAC_INCHI>
InChI=1S/C7H10O/c1-6-4-2-3-5-7(6)8/h4H,2-3,5H2,1H3

> <PUBCHEM_IUPAC_INCHIKEY>
LKTNAAYQZJAXCJ-UHFFFAOYSA-N

> <PUBCHEM_XLOGP3_AA>
1.3

> <PUBCHEM_EXACT_MASS>
110.073

> <PUBCHEM_MOLECULAR_FORMULA>
C7H10O

> <PUBCHEM_MOLECULAR_WEIGHT>
110.156

> <PUBCHEM_OPENEYE_CAN_SMILES>
CC1=CCCCC1=O

> <PUBCHEM_OPENEYE_ISO_SMILES>
CC1=CCCCC1=O

> <PUBCHEM_CACTVS_TPSA>
17.1

> <PUBCHEM_MONOISOTOPIC_WEIGHT>
110.073

> <PUBCHEM_TOTAL_CHARGE>
0

> <PUBCHEM_HEAVY_ATOM_COUNT>
8

> <PUBCHEM_ATOM_DEF_STEREO_COUNT>
0

> <PUBCHEM_ATOM_UDEF_STEREO_COUNT>
0

> <PUBCHEM_BOND_DEF_STEREO_COUNT>
0

> <PUBCHEM_BOND_UDEF_STEREO_COUNT>
0

> <PUBCHEM_ISOTOPIC_ATOM_COUNT>
0

> <PUBCHEM_COMPONENT_COUNT>
1

> <PUBCHEM_CACTVS_TAUTO_COUNT>
5

> <PUBCHEM_COORDINATE_TYPE>
1
5
255

$$$$
11419
  -OEChem-03301715362D

 20 20  0     1  0  0  0  0  0999 V2000
    2.0000    0.5000    0.0000 O   0  0  0  0  0  0  0  0  0  0  0  0
    3.7320    0.5000    0.0000 C   0  0  3  0  0  0  0  0  0  0  0  0
    4.5981    0.0000    0.0000 C   0  0  0  0  0  0  0  0  0  0  0  0
    4.5981   -1.0000    0.0000 C   0  0  0  0  0  0  0  0  0  0  0  0
    3.7320   -1.5000    0.0000 C   0  0  0  0  0  0  0  0  0  0  0  0
    2.8660   -1.0000    0.0000 C   0  0  0  0  0  0  0  0  0  0  0  0
    2.8660    0.0000    0.0000 C   0  0  0  0  0  0  0  0  0  0  0  0
    3.7320    1.5000    0.0000 C   0  0  0  0  0  0  0  0  0  0  0  0
    4.2690    0.8100    0.0000 H   0  0  0  0  0  0  0  0  0  0  0  0
    5.2087   -0.1077    0.0000 H   0  0  0  0  0  0  0  0  0  0  0  0
    4.8101    0.5826    0.0000 H   0  0  0  0  0  0  0  0  0  0  0  0
    4.8101   -1.5826    0.0000 H   0  0  0  0  0  0  0  0  0  0  0  0
    5.2087   -0.8923    0.0000 H   0  0  0  0  0  0  0  0  0  0  0  0
    3.3335   -1.9750    0.0000 H   0  0  0  0  0  0  0  0  0  0  0  0
    4.1306   -1.9750    0.0000 H   0  0  0  0  0  0  0  0  0  0  0  0
    2.2554   -0.8923    0.0000 H   0  0  0  0  0  0  0  0  0  0  0  0
    2.6540   -1.5826    0.0000 H   0  0  0  0  0  0  0  0  0  0  0  0
    4.3520    1.5000    0.0000 H   0  0  0  0  0  0  0  0  0  0  0  0
    3.7320    2.1200    0.0000 H   0  0  0  0  0  0  0  0  0  0  0  0
    3.1120    1.5000    0.0000 H   0  0  0  0  0  0  0  0  0  0  0  0
  1  7  2  0  0  0  0
  2  3  1  0  0  0  0
  2  7  1  0  0  0  0
  2  8  1  0  0  0  0
  2  9  1  0  0  0  0
  3  4  1  0  0  0  0
  3 10  1  0  0  0  0
  3 11  1  0  0  0  0
  4  5  1  0  0  0  0
  4 12  1  0  0  0  0
  4 13  1  0  0  0  0
  5  6  1  0  0  0  0
  5 14  1  0  0  0  0
  5 15  1  0  0  0  0
  6  7  1  0  0  0  0
  6 16  1  0  0  0  0
  6 17  1  0  0  0  0
  8 18  1  0  0  0  0
  8 19  1  0  0  0  0
  8 20  1  0  0  0  0
M  END
> <PUBCHEM_COMPOUND_CID>
11419

> <PUBCHEM_COMPOUND_CANONICALIZED>
1

> <PUBCHEM_CACTVS_COMPLEXITY>
96.6

> <PUBCHEM_CACTVS_HBOND_ACCEPTOR>
1

> <PUBCHEM_CACTVS_HBOND_DONOR>
0

> <PUBCHEM_CACTVS_ROTATABLE_BOND>
0

> <PUBCHEM_CACTVS_SUBSKEYS>
AAADccBgIAAAAAAAAAAAAAAAAAAAAAAAAAAwAAAAAAAAAAAAAAAAGgAAAAAADQSAgAACAAAAAAAIAIAQAAAAAAAAAAAAAAEAAAAAABIAAAAAAAAAAAAAAAEIiACOAAAAAAAAAAAAAAAAAAAAAAAAAAAAAA==

> <PUBCHEM_IUPAC_OPENEYE_NAME>
2-methylcyclohexanone

> <PUBCHEM_IUPAC_CAS_NAME>
2-methyl-1-cyclohexanone

> <PUBCHEM_IUPAC_NAME>
2-methylcyclohexan-1-one

> <PUBCHEM_IUPAC_SYSTEMATIC_NAME>
2-methylcyclohexan-1-one

> <PUBCHEM_IUPAC_TRADITIONAL_NAME>
2-methylcyclohexanone

> <PUBCHEM_IUPAC_INCHI>
InChI=1S/C7H12O/c1-6-4-2-3-5-7(6)8/h6H,2-5H2,1H3

> <PUBCHEM_IUPAC_INCHIKEY>
LFSAPCRASZRSKS-UHFFFAOYSA-N

> <PUBCHEM_XLOGP3_AA>
1.5

> <PUBCHEM_EXACT_MASS>
112.089

> <PUBCHEM_MOLECULAR_FORMULA>
C7H12O

> <PUBCHEM_MOLECULAR_WEIGHT>
112.172

> <PUBCHEM_OPENEYE_CAN_SMILES>
CC1CCCCC1=O

> <PUBCHEM_OPENEYE_ISO_SMILES>
CC1CCCCC1=O

> <PUBCHEM_CACTVS_TPSA>
17.1

> <PUBCHEM_MONOISOTOPIC_WEIGHT>
112.089

> <PUBCHEM_TOTAL_CHARGE>
0

> <PUBCHEM_HEAVY_ATOM_COUNT>
8

> <PUBCHEM_ATOM_DEF_STEREO_COUNT>
0

> <PUBCHEM_ATOM_UDEF_STEREO_COUNT>
1

> <PUBCHEM_BOND_DEF_STEREO_COUNT>
0

> <PUBCHEM_BOND_UDEF_STEREO_COUNT>
0

> <PUBCHEM_ISOTOPIC_ATOM_COUNT>
0

> <PUBCHEM_COMPONENT_COUNT>
1

> <PUBCHEM_CACTVS_TAUTO_COUNT>
3

> <PUBCHEM_COORDINATE_TYPE>
1
5
255

> <PUBCHEM_BONDANNOTATIONS>
2  8  3

$$$$
11829404
  -OEChem-03301715392D

 17 17  0     1  0  0  0  0  0999 V2000
    3.7320    1.5000    0.0000 F   0  0  0  0  0  0  0  0  0  0  0  0
    2.0000    0.5000    0.0000 O   0  0  0  0  0  0  0  0  0  0  0  0
    4.5981   -1.0000    0.0000 C   0  0  0  0  0  0  0  0  0  0  0  0
    4.5981    0.0000    0.0000 C   0  0  0  0  0  0  0  0  0  0  0  0
    3.7320   -1.5000    0.0000 C   0  0  0  0  0  0  0  0  0  0  0  0
    3.7320    0.5000    0.0000 C   0  0  3  0  0  0  0  0  0  0  0  0
    2.8660   -1.0000    0.0000 C   0  0  0  0  0  0  0  0  0  0  0  0
    2.8660    0.0000    0.0000 C   0  0  0  0  0  0  0  0  0  0  0  0
    4.8101   -1.5826    0.0000 H   0  0  0  0  0  0  0  0  0  0  0  0
    5.2087   -0.8923    0.0000 H   0  0  0  0  0  0  0  0  0  0  0  0
    5.2087   -0.1077    0.0000 H   0  0  0  0  0  0  0  0  0  0  0  0
    4.8101    0.5826    0.0000 H   0  0  0  0  0  0  0  0  0  0  0  0
    3.3335   -1.9750    0.0000 H   0  0  0  0  0  0  0  0  0  0  0  0
    4.1306   -1.9750    0.0000 H   0  0  0  0  0  0  0  0  0  0  0  0
    4.4682    0.9250    0.0000 H   0  0  0  0  0  0  0  0  0  0  0  0
    2.2554   -0.8923    0.0000 H   0  0  0  0  0  0  0  0  0  0  0  0
    2.6540   -1.5826    0.0000 H   0  0  0  0  0  0  0  0  0  0  0  0
  1  6  1  0  0  0  0
  2  8  2  0  0  0  0
  3  4  1  0  0  0  0
  3  5  1  0  0  0  0
  3  9  1  0  0  0  0
  3 10  1  0  0  0  0
  4  6  1  0  0  0  0
  4 11  1  0  0  0  0
  4 12  1  0  0  0  0
  5  7  1  0  0  0  0
  5 13  1  0  0  0  0
  5 14  1  0  0  0  0
  6  8  1  0  0  0  0
  6 15  1  0  0  0  0
  7  8  1  0  0  0  0
  7 16  1  0  0  0  0
  7 17  1  0  0  0  0
M  END
> <PUBCHEM_COMPOUND_CID>
11829404

> <PUBCHEM_COMPOUND_CANONICALIZED>
1

> <PUBCHEM_CACTVS_COMPLEXITY>
101

> <PUBCHEM_CACTVS_HBOND_ACCEPTOR>
2

> <PUBCHEM_CACTVS_HBOND_DONOR>
0

> <PUBCHEM_CACTVS_ROTATABLE_BOND>
0

> <PUBCHEM_CACTVS_SUBSKEYS>
AAADccBgIQAAAAAAAAAAAAAAAAAAAAAAAAAwAAAAAAAAAAAAAAAAGwAAAAAACASAgAAAAAAAAAAIAIAQAAAAAAAAAAAAAAEAAAAAABIAAAAAAAAAAAAAAAEICAAAAAAAAAAAAAAAAAAAAAAAAAAAAAAAAA==

> <PUBCHEM_IUPAC_OPENEYE_NAME>
2-fluorocyclohexanone

> <PUBCHEM_IUPAC_CAS_NAME>
2-fluoro-1-cyclohexanone

> <PUBCHEM_IUPAC_NAME>
2-fluorocyclohexan-1-one

> <PUBCHEM_IUPAC_SYSTEMATIC_NAME>
2-fluoranylcyclohexan-1-one

> <PUBCHEM_IUPAC_TRADITIONAL_NAME>
2-fluorocyclohexanone

> <PUBCHEM_IUPAC_INCHI>
InChI=1S/C6H9FO/c7-5-3-1-2-4-6(5)8/h5H,1-4H2

> <PUBCHEM_IUPAC_INCHIKEY>
VQYOFTVCYSPHPG-UHFFFAOYSA-N

> <PUBCHEM_XLOGP3_AA>
1.2

> <PUBCHEM_EXACT_MASS>
116.064

> <PUBCHEM_MOLECULAR_FORMULA>
C6H9FO

> <PUBCHEM_MOLECULAR_WEIGHT>
116.135

> <PUBCHEM_OPENEYE_CAN_SMILES>
C1CCC(=O)C(C1)F

> <PUBCHEM_OPENEYE_ISO_SMILES>
C1CCC(=O)C(C1)F

> <PUBCHEM_CACTVS_TPSA>
17.1

> <PUBCHEM_MONOISOTOPIC_WEIGHT>
116.064

> <PUBCHEM_TOTAL_CHARGE>
0

> <PUBCHEM_HEAVY_ATOM_COUNT>
8

> <PUBCHEM_ATOM_DEF_STEREO_COUNT>
0

> <PUBCHEM_ATOM_UDEF_STEREO_COUNT>
1

> <PUBCHEM_BOND_DEF_STEREO_COUNT>
0

> <PUBCHEM_BOND_UDEF_STEREO_COUNT>
0

> <PUBCHEM_ISOTOPIC_ATOM_COUNT>
0

> <PUBCHEM_COMPONENT_COUNT>
1

> <PUBCHEM_CACTVS_TAUTO_COUNT>
3

> <PUBCHEM_COORDINATE_TYPE>
1
5
255

> <PUBCHEM_BONDANNOTATIONS>
6  15  3

$$$$
7960
  -OEChem-03301715412D

 18 18  0     0  0  0  0  0  0999 V2000
    2.8660    1.5000    0.0000 Br  0  0  0  0  0  0  0  0  0  0  0  0
    2.8660    0.5000    0.0000 C   0  0  0  0  0  0  0  0  0  0  0  0
    2.0000    0.0000    0.0000 C   0  0  0  0  0  0  0  0  0  0  0  0
    3.7320    0.0000    0.0000 C   0  0  0  0  0  0  0  0  0  0  0  0
    2.0000   -1.0000    0.0000 C   0  0  0  0  0  0  0  0  0  0  0  0
    3.7320   -1.0000    0.0000 C   0  0  0  0  0  0  0  0  0  0  0  0
    2.8660   -1.5000    0.0000 C   0  0  0  0  0  0  0  0  0  0  0  0
    3.4030    0.8100    0.0000 H   0  0  0  0  0  0  0  0  0  0  0  0
    4.3426   -0.1077    0.0000 H   0  0  0  0  0  0  0  0  0  0  0  0
    3.9441    0.5826    0.0000 H   0  0  0  0  0  0  0  0  0  0  0  0
    1.7880    0.5826    0.0000 H   0  0  0  0  0  0  0  0  0  0  0  0
    1.3894   -0.1077    0.0000 H   0  0  0  0  0  0  0  0  0  0  0  0
    1.3894   -0.8923    0.0000 H   0  0  0  0  0  0  0  0  0  0  0  0
    1.7880   -1.5826    0.0000 H   0  0  0  0  0  0  0  0  0  0  0  0
    3.9441   -1.5826    0.0000 H   0  0  0  0  0  0  0  0  0  0  0  0
    4.3426   -0.8923    0.0000 H   0  0  0  0  0  0  0  0  0  0  0  0
    2.4675   -1.9750    0.0000 H   0  0  0  0  0  0  0  0  0  0  0  0
    3.2646   -1.9750    0.0000 H   0  0  0  0  0  0  0  0  0  0  0  0
  1  2  1  0  0  0  0
  2  3  1  0  0  0  0
  2  4  1  0  0  0  0
  2  8  1  0  0  0  0
  3  5  1  0  0  0  0
  3 11  1  0  0  0  0
  3 12  1  0  0  0  0
  4  6  1  0  0  0  0
  4  9  1  0  0  0  0
  4 10  1  0  0  0  0
  5  7  1  0  0  0  0
  5 13  1  0  0  0  0
  5 14  1  0  0  0  0
  6  7  1  0  0  0  0
  6 15  1  0  0  0  0
  6 16  1  0  0  0  0
  7 17  1  0  0  0  0
  7 18  1  0  0  0  0
M  END
> <PUBCHEM_COMPOUND_CID>
7960

> <PUBCHEM_COMPOUND_CANONICALIZED>
1

> <PUBCHEM_CACTVS_COMPLEXITY>
46.1

> <PUBCHEM_CACTVS_HBOND_ACCEPTOR>
0

> <PUBCHEM_CACTVS_HBOND_DONOR>
0

> <PUBCHEM_CACTVS_ROTATABLE_BOND>
0

> <PUBCHEM_CACTVS_SUBSKEYS>
AAADccBgAAAAEAAAAAAAAAAAAAAAAAAAAAAwAAAAAAAAAAAAAAAAGABAAAAByACAAAAAAAAAAAAAAAAAAAAAAAAAAAAAAAAAACAAAAIAAAAAAAAAAAAAAAEAAAAAAAAAAAAAAAAAAAAAAAAAAAAAAAAAAA==

> <PUBCHEM_IUPAC_OPENEYE_NAME>
bromocyclohexane

> <PUBCHEM_IUPAC_CAS_NAME>
bromocyclohexane

> <PUBCHEM_IUPAC_NAME>
bromocyclohexane

> <PUBCHEM_IUPAC_SYSTEMATIC_NAME>
bromanylcyclohexane

> <PUBCHEM_IUPAC_TRADITIONAL_NAME>
bromocyclohexane

> <PUBCHEM_IUPAC_INCHI>
InChI=1S/C6H11Br/c7-6-4-2-1-3-5-6/h6H,1-5H2

> <PUBCHEM_IUPAC_INCHIKEY>
AQNQQHJNRPDOQV-UHFFFAOYSA-N

> <PUBCHEM_XLOGP3>
3.2

> <PUBCHEM_EXACT_MASS>
162.004

> <PUBCHEM_MOLECULAR_FORMULA>
C6H11Br

> <PUBCHEM_MOLECULAR_WEIGHT>
163.058

> <PUBCHEM_OPENEYE_CAN_SMILES>
C1CCC(CC1)Br

> <PUBCHEM_OPENEYE_ISO_SMILES>
C1CCC(CC1)Br

> <PUBCHEM_CACTVS_TPSA>
0

> <PUBCHEM_MONOISOTOPIC_WEIGHT>
162.004

> <PUBCHEM_TOTAL_CHARGE>
0

> <PUBCHEM_HEAVY_ATOM_COUNT>
7

> <PUBCHEM_ATOM_DEF_STEREO_COUNT>
0

> <PUBCHEM_ATOM_UDEF_STEREO_COUNT>
0

> <PUBCHEM_BOND_DEF_STEREO_COUNT>
0

> <PUBCHEM_BOND_UDEF_STEREO_COUNT>
0

> <PUBCHEM_ISOTOPIC_ATOM_COUNT>
0

> <PUBCHEM_COMPONENT_COUNT>
1

> <PUBCHEM_CACTVS_TAUTO_COUNT>
1

> <PUBCHEM_COORDINATE_TYPE>
1
5
255

$$$$
7967
  -OEChem-03301715432D

 17 17  0     0  0  0  0  0  0999 V2000
    2.8660    1.5000    0.0000 O   0  0  0  0  0  0  0  0  0  0  0  0
    2.8660   -1.5000    0.0000 C   0  0  0  0  0  0  0  0  0  0  0  0
    3.7320   -1.0000    0.0000 C   0  0  0  0  0  0  0  0  0  0  0  0
    2.0000   -1.0000    0.0000 C   0  0  0  0  0  0  0  0  0  0  0  0
    2.0000    0.0000    0.0000 C   0  0  0  0  0  0  0  0  0  0  0  0
    3.7320    0.0000    0.0000 C   0  0  0  0  0  0  0  0  0  0  0  0
    2.8660    0.5000    0.0000 C   0  0  0  0  0  0  0  0  0  0  0  0
    2.4675   -1.9750    0.0000 H   0  0  0  0  0  0  0  0  0  0  0  0
    3.2646   -1.9750    0.0000 H   0  0  0  0  0  0  0  0  0  0  0  0
    3.9441   -1.5826    0.0000 H   0  0  0  0  0  0  0  0  0  0  0  0
    4.3426   -0.8923    0.0000 H   0  0  0  0  0  0  0  0  0  0  0  0
    1.3894   -0.8923    0.0000 H   0  0  0  0  0  0  0  0  0  0  0  0
    1.7880   -1.5826    0.0000 H   0  0  0  0  0  0  0  0  0  0  0  0
    4.3426   -0.1077    0.0000 H   0  0  0  0  0  0  0  0  0  0  0  0
    3.9441    0.5826    0.0000 H   0  0  0  0  0  0  0  0  0  0  0  0
    1.7880    0.5826    0.0000 H   0  0  0  0  0  0  0  0  0  0  0  0
    1.3894   -0.1077    0.0000 H   0  0  0  0  0  0  0  0  0  0  0  0
  1  7  2  0  0  0  0
  2  3  1  0  0  0  0
  2  4  1  0  0  0  0
  2  8  1  0  0  0  0
  2  9  1  0  0  0  0
  3  6  1  0  0  0  0
  3 10  1  0  0  0  0
  3 11  1  0  0  0  0
  4  5  1  0  0  0  0
  4 12  1  0  0  0  0
  4 13  1  0  0  0  0
  5  7  1  0  0  0  0
  5 16  1  0  0  0  0
  5 17  1  0  0  0  0
  6  7  1  0  0  0  0
  6 14  1  0  0  0  0
  6 15  1  0  0  0  0
M  END
> <PUBCHEM_COMPOUND_CID>
7967

> <PUBCHEM_COMPOUND_CANONICALIZED>
1

> <PUBCHEM_CACTVS_COMPLEXITY>
68.2

> <PUBCHEM_CACTVS_HBOND_ACCEPTOR>
1

> <PUBCHEM_CACTVS_HBOND_DONOR>
0

> <PUBCHEM_CACTVS_ROTATABLE_BOND>
0

> <PUBCHEM_CACTVS_SUBSKEYS>
AAADccBgIAAAAAAAAAAAAAAAAAAAAAAAAAAwAAAAAAAAAAAAAAAAGgAAAAAACASAgAAAAAAAAAAIAIAQAAAAAAAAAAAAAAEAAAAAABIAAAAAAAAAAAAAAAEICAAAAAAAAAAAAAAAAAAAAAAAAAAAAAAAAA==

> <PUBCHEM_IUPAC_OPENEYE_NAME>
cyclohexanone

> <PUBCHEM_IUPAC_CAS_NAME>
cyclohexanone

> <PUBCHEM_IUPAC_NAME>
cyclohexanone

> <PUBCHEM_IUPAC_SYSTEMATIC_NAME>
cyclohexanone

> <PUBCHEM_IUPAC_TRADITIONAL_NAME>
cyclohexanone

> <PUBCHEM_IUPAC_INCHI>
InChI=1S/C6H10O/c7-6-4-2-1-3-5-6/h1-5H2

> <PUBCHEM_IUPAC_INCHIKEY>
JHIVVAPYMSGYDF-UHFFFAOYSA-N

> <PUBCHEM_XLOGP3>
0.8

> <PUBCHEM_EXACT_MASS>
98.073

> <PUBCHEM_MOLECULAR_FORMULA>
C6H10O

> <PUBCHEM_MOLECULAR_WEIGHT>
98.145

> <PUBCHEM_OPENEYE_CAN_SMILES>
C1CCC(=O)CC1

> <PUBCHEM_OPENEYE_ISO_SMILES>
C1CCC(=O)CC1

> <PUBCHEM_CACTVS_TPSA>
17.1

> <PUBCHEM_MONOISOTOPIC_WEIGHT>
98.073

> <PUBCHEM_TOTAL_CHARGE>
0

> <PUBCHEM_HEAVY_ATOM_COUNT>
7

> <PUBCHEM_ATOM_DEF_STEREO_COUNT>
0

> <PUBCHEM_ATOM_UDEF_STEREO_COUNT>
0

> <PUBCHEM_BOND_DEF_STEREO_COUNT>
0

> <PUBCHEM_BOND_UDEF_STEREO_COUNT>
0

> <PUBCHEM_ISOTOPIC_ATOM_COUNT>
0

> <PUBCHEM_COMPONENT_COUNT>
1

> <PUBCHEM_CACTVS_TAUTO_COUNT>
2

> <PUBCHEM_COORDINATE_TYPE>
1
5
255

$$$$
7768
  -OEChem-03301715462D

 19 19  0     0  0  0  0  0  0999 V2000
    2.0000   -0.9749    0.0000 O   0  0  0  0  0  0  0  0  0  0  0  0
    3.6828   -0.7853    0.0000 N   0  0  0  0  0  0  0  0  0  0  0  0
    4.1828    1.4053    0.0000 C   0  0  0  0  0  0  0  0  0  0  0  0
    4.8063    0.6235    0.0000 C   0  0  0  0  0  0  0  0  0  0  0  0
    3.1828    1.4053    0.0000 C   0  0  0  0  0  0  0  0  0  0  0  0
    4.5838   -0.3514    0.0000 C   0  0  0  0  0  0  0  0  0  0  0  0
    2.5593    0.6235    0.0000 C   0  0  0  0  0  0  0  0  0  0  0  0
    2.7818   -0.3514    0.0000 C   0  0  0  0  0  0  0  0  0  0  0  0
    4.7414    1.6743    0.0000 H   0  0  0  0  0  0  0  0  0  0  0  0
    4.0448    2.0098    0.0000 H   0  0  0  0  0  0  0  0  0  0  0  0
    5.3649    0.3545    0.0000 H   0  0  0  0  0  0  0  0  0  0  0  0
    5.1928    1.1082    0.0000 H   0  0  0  0  0  0  0  0  0  0  0  0
    3.3208    2.0098    0.0000 H   0  0  0  0  0  0  0  0  0  0  0  0
    2.6242    1.6743    0.0000 H   0  0  0  0  0  0  0  0  0  0  0  0
    4.7217   -0.9559    0.0000 H   0  0  0  0  0  0  0  0  0  0  0  0
    5.2038   -0.3514    0.0000 H   0  0  0  0  0  0  0  0  0  0  0  0
    2.1728    1.1082    0.0000 H   0  0  0  0  0  0  0  0  0  0  0  0
    2.0007    0.3545    0.0000 H   0  0  0  0  0  0  0  0  0  0  0  0
    3.6828   -1.4053    0.0000 H   0  0  0  0  0  0  0  0  0  0  0  0
  1  8  2  0  0  0  0
  2  6  1  0  0  0  0
  2  8  1  0  0  0  0
  2 19  1  0  0  0  0
  3  4  1  0  0  0  0
  3  5  1  0  0  0  0
  3  9  1  0  0  0  0
  3 10  1  0  0  0  0
  4  6  1  0  0  0  0
  4 11  1  0  0  0  0
  4 12  1  0  0  0  0
  5  7  1  0  0  0  0
  5 13  1  0  0  0  0
  5 14  1  0  0  0  0
  6 15  1  0  0  0  0
  6 16  1  0  0  0  0
  7  8  1  0  0  0  0
  7 17  1  0  0  0  0
  7 18  1  0  0  0  0
M  END
> <PUBCHEM_COMPOUND_CID>
7768

> <PUBCHEM_COMPOUND_CANONICALIZED>
1

> <PUBCHEM_CACTVS_COMPLEXITY>
90.5

> <PUBCHEM_CACTVS_HBOND_ACCEPTOR>
1

> <PUBCHEM_CACTVS_HBOND_DONOR>
1

> <PUBCHEM_CACTVS_ROTATABLE_BOND>
0

> <PUBCHEM_CACTVS_SUBSKEYS>
AAADccBiIAAAAAAAAAAAAAAAAAAAAAAAAAAAAAAABYAAAAAAAAAAHgAQAAAACADBgAQAAALAAAAIAAEQEAAAAAAAAAAAAIEIAAAAABIAgAAEAAAAFgCAAAEYCAAAAAAAAAAAAAAAAAAAAAAAAAAAAAAAAA==

> <PUBCHEM_IUPAC_OPENEYE_NAME>
azepan-2-one

> <PUBCHEM_IUPAC_CAS_NAME>
2-azepanone

> <PUBCHEM_IUPAC_NAME>
azepan-2-one

> <PUBCHEM_IUPAC_SYSTEMATIC_NAME>
azepan-2-one

> <PUBCHEM_IUPAC_TRADITIONAL_NAME>
azepan-2-one

> <PUBCHEM_IUPAC_INCHI>
InChI=1S/C6H11NO/c8-6-4-2-1-3-5-7-6/h1-5H2,(H,7,8)

> <PUBCHEM_IUPAC_INCHIKEY>
JBKVHLHDHHXQEQ-UHFFFAOYSA-N

> <PUBCHEM_XLOGP3>
-0.1

> <PUBCHEM_EXACT_MASS>
113.084

> <PUBCHEM_MOLECULAR_FORMULA>
C6H11NO

> <PUBCHEM_MOLECULAR_WEIGHT>
113.16

> <PUBCHEM_OPENEYE_CAN_SMILES>
C1CCC(=O)NCC1

> <PUBCHEM_OPENEYE_ISO_SMILES>
C1CCC(=O)NCC1

> <PUBCHEM_CACTVS_TPSA>
29.1

> <PUBCHEM_MONOISOTOPIC_WEIGHT>
113.084

> <PUBCHEM_TOTAL_CHARGE>
0

> <PUBCHEM_HEAVY_ATOM_COUNT>
8

> <PUBCHEM_ATOM_DEF_STEREO_COUNT>
0

> <PUBCHEM_ATOM_UDEF_STEREO_COUNT>
0

> <PUBCHEM_BOND_DEF_STEREO_COUNT>
0

> <PUBCHEM_BOND_UDEF_STEREO_COUNT>
0

> <PUBCHEM_ISOTOPIC_ATOM_COUNT>
0

> <PUBCHEM_COMPONENT_COUNT>
1

> <PUBCHEM_CACTVS_TAUTO_COUNT>
3

> <PUBCHEM_COORDINATE_TYPE>
1
5
255

$$$$
12756
  -OEChem-05151721052D

 18 18  0     1  0  0  0  0  0999 V2000
    3.7601   -0.7694    0.0000 O   0  0  0  0  0  0  0  0  0  0  0  0
    2.0000   -0.4907    0.0000 O   0  0  0  0  0  0  0  0  0  0  0  0
    4.5691   -0.1816    0.0000 C   0  0  3  0  0  0  0  0  0  0  0  0
    4.2601    0.7694    0.0000 C   0  0  0  0  0  0  0  0  0  0  0  0
    3.2601    0.7694    0.0000 C   0  0  0  0  0  0  0  0  0  0  0  0
    5.5202   -0.4907    0.0000 C   0  0  0  0  0  0  0  0  0  0  0  0
    2.9511   -0.1816    0.0000 C   0  0  0  0  0  0  0  0  0  0  0  0
    6.2633    0.1785    0.0000 C   0  0  0  0  0  0  0  0  0  0  0  0
    4.7021   -1.0212    0.0000 H   0  0  0  0  0  0  0  0  0  0  0  0
    4.8665    0.8983    0.0000 H   0  0  0  0  0  0  0  0  0  0  0  0
    4.1953    1.3860    0.0000 H   0  0  0  0  0  0  0  0  0  0  0  0
    3.3249    1.3860    0.0000 H   0  0  0  0  0  0  0  0  0  0  0  0
    2.6536    0.8983    0.0000 H   0  0  0  0  0  0  0  0  0  0  0  0
    5.2291   -1.0381    0.0000 H   0  0  0  0  0  0  0  0  0  0  0  0
    6.0087   -0.8724    0.0000 H   0  0  0  0  0  0  0  0  0  0  0  0
    6.6782   -0.2823    0.0000 H   0  0  0  0  0  0  0  0  0  0  0  0
    6.7240    0.5933    0.0000 H   0  0  0  0  0  0  0  0  0  0  0  0
    5.8484    0.6392    0.0000 H   0  0  0  0  0  0  0  0  0  0  0  0
  1  3  1  0  0  0  0
  1  7  1  0  0  0  0
  2  7  2  0  0  0  0
  3  4  1  0  0  0  0
  3  6  1  0  0  0  0
  3  9  1  0  0  0  0
  4  5  1  0  0  0  0
  4 10  1  0  0  0  0
  4 11  1  0  0  0  0
  5  7  1  0  0  0  0
  5 12  1  0  0  0  0
  5 13  1  0  0  0  0
  6  8  1  0  0  0  0
  6 14  1  0  0  0  0
  6 15  1  0  0  0  0
  8 16  1  0  0  0  0
  8 17  1  0  0  0  0
  8 18  1  0  0  0  0
M  END
> <PUBCHEM_COMPOUND_CID>
12756

> <PUBCHEM_COMPOUND_CANONICALIZED>
1

> <PUBCHEM_CACTVS_COMPLEXITY>
98.7

> <PUBCHEM_CACTVS_HBOND_ACCEPTOR>
2

> <PUBCHEM_CACTVS_HBOND_DONOR>
0

> <PUBCHEM_CACTVS_ROTATABLE_BOND>
1

> <PUBCHEM_CACTVS_SUBSKEYS>
AAADccBgMAAAAAAAAAAAAAAAAAAAASAAAAAAAAAAAAAAAAAAAAAAGgAAAAAACBSggAICCAAABAAIAACQCAAAAAAAAAAAAAEAAAAAABIAAAACAAAEAAAAAAGKSAAAAAAAAAAAAAAAAAAAAAAAAAAAAAAAAA==

> <PUBCHEM_IUPAC_OPENEYE_NAME>
5-ethyltetrahydrofuran-2-one

> <PUBCHEM_IUPAC_CAS_NAME>
5-ethyl-2-oxolanone

> <PUBCHEM_IUPAC_NAME>
5-ethyloxolan-2-one

> <PUBCHEM_IUPAC_SYSTEMATIC_NAME>
5-ethyloxolan-2-one

> <PUBCHEM_IUPAC_TRADITIONAL_NAME>
5-ethyltetrahydrofuran-2-one

> <PUBCHEM_IUPAC_INCHI>
InChI=1S/C6H10O2/c1-2-5-3-4-6(7)8-5/h5H,2-4H2,1H3

> <PUBCHEM_IUPAC_INCHIKEY>
JBFHTYHTHYHCDJ-UHFFFAOYSA-N

> <PUBCHEM_XLOGP3>
0.7

> <PUBCHEM_EXACT_MASS>
114.068

> <PUBCHEM_MOLECULAR_FORMULA>
C6H10O2

> <PUBCHEM_MOLECULAR_WEIGHT>
114.144

> <PUBCHEM_OPENEYE_CAN_SMILES>
CCC1CCC(=O)O1

> <PUBCHEM_OPENEYE_ISO_SMILES>
CCC1CCC(=O)O1

> <PUBCHEM_CACTVS_TPSA>
26.3

> <PUBCHEM_MONOISOTOPIC_WEIGHT>
114.068

> <PUBCHEM_TOTAL_CHARGE>
0

> <PUBCHEM_HEAVY_ATOM_COUNT>
8

> <PUBCHEM_ATOM_DEF_STEREO_COUNT>
0

> <PUBCHEM_ATOM_UDEF_STEREO_COUNT>
1

> <PUBCHEM_BOND_DEF_STEREO_COUNT>
0

> <PUBCHEM_BOND_UDEF_STEREO_COUNT>
0

> <PUBCHEM_ISOTOPIC_ATOM_COUNT>
0

> <PUBCHEM_COMPONENT_COUNT>
1

> <PUBCHEM_CACTVS_TAUTO_COUNT>
2

> <PUBCHEM_COORDINATE_TYPE>
1
5
255

> <PUBCHEM_BONDANNOTATIONS>
3  9  3

$$$$
7742
  -OEChem-05151721052D

 21 21  0     1  0  0  0  0  0999 V2000
    3.7601   -0.7694    0.0000 O   0  0  0  0  0  0  0  0  0  0  0  0
    2.0000   -0.4907    0.0000 O   0  0  0  0  0  0  0  0  0  0  0  0
    4.5691   -0.1816    0.0000 C   0  0  3  0  0  0  0  0  0  0  0  0
    4.2601    0.7694    0.0000 C   0  0  0  0  0  0  0  0  0  0  0  0
    5.5202   -0.4907    0.0000 C   0  0  0  0  0  0  0  0  0  0  0  0
    3.2601    0.7694    0.0000 C   0  0  0  0  0  0  0  0  0  0  0  0
    6.2633    0.1785    0.0000 C   0  0  0  0  0  0  0  0  0  0  0  0
    2.9511   -0.1816    0.0000 C   0  0  0  0  0  0  0  0  0  0  0  0
    7.2144   -0.1305    0.0000 C   0  0  0  0  0  0  0  0  0  0  0  0
    4.7021   -1.0212    0.0000 H   0  0  0  0  0  0  0  0  0  0  0  0
    4.8665    0.8983    0.0000 H   0  0  0  0  0  0  0  0  0  0  0  0
    4.1953    1.3860    0.0000 H   0  0  0  0  0  0  0  0  0  0  0  0
    5.2291   -1.0381    0.0000 H   0  0  0  0  0  0  0  0  0  0  0  0
    6.0087   -0.8724    0.0000 H   0  0  0  0  0  0  0  0  0  0  0  0
    3.3249    1.3860    0.0000 H   0  0  0  0  0  0  0  0  0  0  0  0
    2.6536    0.8983    0.0000 H   0  0  0  0  0  0  0  0  0  0  0  0
    6.5544    0.7259    0.0000 H   0  0  0  0  0  0  0  0  0  0  0  0
    5.7747    0.5602    0.0000 H   0  0  0  0  0  0  0  0  0  0  0  0
    7.0228   -0.7202    0.0000 H   0  0  0  0  0  0  0  0  0  0  0  0
    7.8040   -0.3221    0.0000 H   0  0  0  0  0  0  0  0  0  0  0  0
    7.4059    0.4591    0.0000 H   0  0  0  0  0  0  0  0  0  0  0  0
  1  3  1  0  0  0  0
  1  8  1  0  0  0  0
  2  8  2  0  0  0  0
  3  4  1  0  0  0  0
  3  5  1  0  0  0  0
  3 10  1  0  0  0  0
  4  6  1  0  0  0  0
  4 11  1  0  0  0  0
  4 12  1  0  0  0  0
  5  7  1  0  0  0  0
  5 13  1  0  0  0  0
  5 14  1  0  0  0  0
  6  8  1  0  0  0  0
  6 15  1  0  0  0  0
  6 16  1  0  0  0  0
  7  9  1  0  0  0  0
  7 17  1  0  0  0  0
  7 18  1  0  0  0  0
  9 19  1  0  0  0  0
  9 20  1  0  0  0  0
  9 21  1  0  0  0  0
M  END
> <PUBCHEM_COMPOUND_CID>
7742

> <PUBCHEM_COMPOUND_CANONICALIZED>
1

> <PUBCHEM_CACTVS_COMPLEXITY>
110

> <PUBCHEM_CACTVS_HBOND_ACCEPTOR>
2

> <PUBCHEM_CACTVS_HBOND_DONOR>
0

> <PUBCHEM_CACTVS_ROTATABLE_BOND>
2

> <PUBCHEM_CACTVS_SUBSKEYS>
AAADccBgMAAAAAAAAAAAAAAAAAAAASAAAAAAAAAAAAAAAAAAAAAAGgAAAAAACBSggAICCAAABAAIAACQCAAAAAAAAAAAAAEAAAAAABIAAAACAAAEAAAAAAGKyCCAAAAAAAAAAAAAAAAAAAAAAAAAAAAAAA==

> <PUBCHEM_IUPAC_OPENEYE_NAME>
5-propyltetrahydrofuran-2-one

> <PUBCHEM_IUPAC_CAS_NAME>
5-propyl-2-oxolanone

> <PUBCHEM_IUPAC_NAME>
5-propyloxolan-2-one

> <PUBCHEM_IUPAC_SYSTEMATIC_NAME>
5-propyloxolan-2-one

> <PUBCHEM_IUPAC_TRADITIONAL_NAME>
5-propyltetrahydrofuran-2-one

> <PUBCHEM_IUPAC_INCHI>
InChI=1S/C7H12O2/c1-2-3-6-4-5-7(8)9-6/h6H,2-5H2,1H3

> <PUBCHEM_IUPAC_INCHIKEY>
VLSVVMPLPMNWBH-UHFFFAOYSA-N

> <PUBCHEM_XLOGP3>
1.1

> <PUBCHEM_EXACT_MASS>
128.084

> <PUBCHEM_MOLECULAR_FORMULA>
C7H12O2

> <PUBCHEM_MOLECULAR_WEIGHT>
128.171

> <PUBCHEM_OPENEYE_CAN_SMILES>
CCCC1CCC(=O)O1

> <PUBCHEM_OPENEYE_ISO_SMILES>
CCCC1CCC(=O)O1

> <PUBCHEM_CACTVS_TPSA>
26.3

> <PUBCHEM_MONOISOTOPIC_WEIGHT>
128.084

> <PUBCHEM_TOTAL_CHARGE>
0

> <PUBCHEM_HEAVY_ATOM_COUNT>
9

> <PUBCHEM_ATOM_DEF_STEREO_COUNT>
0

> <PUBCHEM_ATOM_UDEF_STEREO_COUNT>
1

> <PUBCHEM_BOND_DEF_STEREO_COUNT>
0

> <PUBCHEM_BOND_UDEF_STEREO_COUNT>
0

> <PUBCHEM_ISOTOPIC_ATOM_COUNT>
0

> <PUBCHEM_COMPONENT_COUNT>
1

> <PUBCHEM_CACTVS_TAUTO_COUNT>
2

> <PUBCHEM_COORDINATE_TYPE>
1
5
255

> <PUBCHEM_BONDANNOTATIONS>
3  10  3

$$$$
7966
  -OEChem-05151721052D

 19 19  0     0  0  0  0  0  0999 V2000
    2.8660    1.3450    0.0000 O   0  0  0  0  0  0  0  0  0  0  0  0
    2.8660    0.3450    0.0000 C   0  0  0  0  0  0  0  0  0  0  0  0
    2.0000   -0.1550    0.0000 C   0  0  0  0  0  0  0  0  0  0  0  0
    3.7320   -0.1550    0.0000 C   0  0  0  0  0  0  0  0  0  0  0  0
    2.0000   -1.1550    0.0000 C   0  0  0  0  0  0  0  0  0  0  0  0
    3.7320   -1.1550    0.0000 C   0  0  0  0  0  0  0  0  0  0  0  0
    2.8660   -1.6550    0.0000 C   0  0  0  0  0  0  0  0  0  0  0  0
    3.4030    0.6550    0.0000 H   0  0  0  0  0  0  0  0  0  0  0  0
    1.7093    0.6437    0.0000 H   0  0  0  0  0  0  0  0  0  0  0  0
    1.3894   -0.2627    0.0000 H   0  0  0  0  0  0  0  0  0  0  0  0
    4.3426   -0.2627    0.0000 H   0  0  0  0  0  0  0  0  0  0  0  0
    3.9441    0.4276    0.0000 H   0  0  0  0  0  0  0  0  0  0  0  0
    1.3894   -1.0473    0.0000 H   0  0  0  0  0  0  0  0  0  0  0  0
    1.7880   -1.7376    0.0000 H   0  0  0  0  0  0  0  0  0  0  0  0
    3.9441   -1.7376    0.0000 H   0  0  0  0  0  0  0  0  0  0  0  0
    4.3426   -1.0473    0.0000 H   0  0  0  0  0  0  0  0  0  0  0  0
    2.4675   -2.1300    0.0000 H   0  0  0  0  0  0  0  0  0  0  0  0
    3.2646   -2.1300    0.0000 H   0  0  0  0  0  0  0  0  0  0  0  0
    3.4030    1.6550    0.0000 H   0  0  0  0  0  0  0  0  0  0  0  0
  1  2  1  0  0  0  0
  1 19  1  0  0  0  0
  2  3  1  0  0  0  0
  2  4  1  0  0  0  0
  2  8  1  0  0  0  0
  3  5  1  0  0  0  0
  3  9  1  0  0  0  0
  3 10  1  0  0  0  0
  4  6  1  0  0  0  0
  4 11  1  0  0  0  0
  4 12  1  0  0  0  0
  5  7  1  0  0  0  0
  5 13  1  0  0  0  0
  5 14  1  0  0  0  0
  6  7  1  0  0  0  0
  6 15  1  0  0  0  0
  6 16  1  0  0  0  0
  7 17  1  0  0  0  0
  7 18  1  0  0  0  0
M  END
> <PUBCHEM_COMPOUND_CID>
7966

> <PUBCHEM_COMPOUND_CANONICALIZED>
1

> <PUBCHEM_CACTVS_COMPLEXITY>
46.1

> <PUBCHEM_CACTVS_HBOND_ACCEPTOR>
1

> <PUBCHEM_CACTVS_HBOND_DONOR>
1

> <PUBCHEM_CACTVS_ROTATABLE_BOND>
0

> <PUBCHEM_CACTVS_SUBSKEYS>
AAADccBgIAAAAAAAAAAAAAAAAAAAAAAAAAAwAAAAAAAAAAAAAAAAGgAACAAACBSggAIAAAAAAgAAAAAAAAAAAAAAAAAAAAAAAAAAEAIAAAAAQAAEAAAAAAGAQAAAAAAAAAAAAAAAAAAAAAAAAAAAAAAAAA==

> <PUBCHEM_IUPAC_OPENEYE_NAME>
cyclohexanol

> <PUBCHEM_IUPAC_CAS_NAME>
cyclohexanol

> <PUBCHEM_IUPAC_NAME>
cyclohexanol

> <PUBCHEM_IUPAC_SYSTEMATIC_NAME>
cyclohexanol

> <PUBCHEM_IUPAC_TRADITIONAL_NAME>
cyclohexanol

> <PUBCHEM_IUPAC_INCHI>
InChI=1S/C6H12O/c7-6-4-2-1-3-5-6/h6-7H,1-5H2

> <PUBCHEM_IUPAC_INCHIKEY>
HPXRVTGHNJAIIH-UHFFFAOYSA-N

> <PUBCHEM_XLOGP3>
1.2

> <PUBCHEM_EXACT_MASS>
100.089

> <PUBCHEM_MOLECULAR_FORMULA>
C6H12O

> <PUBCHEM_MOLECULAR_WEIGHT>
100.161

> <PUBCHEM_OPENEYE_CAN_SMILES>
C1CCC(CC1)O

> <PUBCHEM_OPENEYE_ISO_SMILES>
C1CCC(CC1)O

> <PUBCHEM_CACTVS_TPSA>
20.2

> <PUBCHEM_MONOISOTOPIC_WEIGHT>
100.089

> <PUBCHEM_TOTAL_CHARGE>
0

> <PUBCHEM_HEAVY_ATOM_COUNT>
7

> <PUBCHEM_ATOM_DEF_STEREO_COUNT>
0

> <PUBCHEM_ATOM_UDEF_STEREO_COUNT>
1

> <PUBCHEM_BOND_DEF_STEREO_COUNT>
0

> <PUBCHEM_BOND_UDEF_STEREO_COUNT>
0

> <PUBCHEM_ISOTOPIC_ATOM_COUNT>
0

> <PUBCHEM_COMPONENT_COUNT>
1

> <PUBCHEM_CACTVS_TAUTO_COUNT>
1

> <PUBCHEM_COORDINATE_TYPE>
1
5
255

> <PUBCHEM_BONDANNOTATIONS>
3  9  3

$$$$
12025
  -OEChem-05151721052D

 13 13  0     0  0  0  0  0  0999 V2000
    4.5691   -0.1807    0.0000 O   0  0  0  0  0  0  0  0  0  0  0  0
    2.8090   -0.4594    0.0000 N   0  0  0  0  0  0  0  0  0  0  0  0
    2.3090    1.0794    0.0000 C   0  0  0  0  0  0  0  0  0  0  0  0
    2.0000    0.1284    0.0000 C   0  0  0  0  0  0  0  0  0  0  0  0
    3.3090    1.0794    0.0000 C   0  0  0  0  0  0  0  0  0  0  0  0
    3.6180    0.1284    0.0000 C   0  0  0  0  0  0  0  0  0  0  0  0
    2.3738    1.6960    0.0000 H   0  0  0  0  0  0  0  0  0  0  0  0
    1.7026    1.2083    0.0000 H   0  0  0  0  0  0  0  0  0  0  0  0
    1.4336    0.3805    0.0000 H   0  0  0  0  0  0  0  0  0  0  0  0
    1.6900   -0.4086    0.0000 H   0  0  0  0  0  0  0  0  0  0  0  0
    3.9155    1.2083    0.0000 H   0  0  0  0  0  0  0  0  0  0  0  0
    3.2442    1.6960    0.0000 H   0  0  0  0  0  0  0  0  0  0  0  0
    2.8090   -1.0794    0.0000 H   0  0  0  0  0  0  0  0  0  0  0  0
  1  6  2  0  0  0  0
  2  4  1  0  0  0  0
  2  6  1  0  0  0  0
  2 13  1  0  0  0  0
  3  4  1  0  0  0  0
  3  5  1  0  0  0  0
  3  7  1  0  0  0  0
  3  8  1  0  0  0  0
  4  9  1  0  0  0  0
  4 10  1  0  0  0  0
  5  6  1  0  0  0  0
  5 11  1  0  0  0  0
  5 12  1  0  0  0  0
M  END
> <PUBCHEM_COMPOUND_CID>
12025

> <PUBCHEM_COMPOUND_CANONICALIZED>
1

> <PUBCHEM_CACTVS_COMPLEXITY>
69.9

> <PUBCHEM_CACTVS_HBOND_ACCEPTOR>
1

> <PUBCHEM_CACTVS_HBOND_DONOR>
1

> <PUBCHEM_CACTVS_ROTATABLE_BOND>
0

> <PUBCHEM_CACTVS_SUBSKEYS>
AAADcYBiIAAAAAAAAAAAAAAAAAAAAWAAAAAAAAAAAAAAAAAAAAAAHgAQAAAACADBgAQAAALAAAAIAAEQEAAAAAAAAAAAAIEIAAAAABAAgAAEAAAAFgCAAAAEAAAAAAAAAAAAAAAAAAAAAAAAAAAAAAAAAA==

> <PUBCHEM_IUPAC_OPENEYE_NAME>
pyrrolidin-2-one

> <PUBCHEM_IUPAC_CAS_NAME>
2-pyrrolidinone

> <PUBCHEM_IUPAC_NAME>
pyrrolidin-2-one

> <PUBCHEM_IUPAC_SYSTEMATIC_NAME>
pyrrolidin-2-one

> <PUBCHEM_IUPAC_TRADITIONAL_NAME>
2-pyrrolidone

> <PUBCHEM_IUPAC_INCHI>
InChI=1S/C4H7NO/c6-4-2-1-3-5-4/h1-3H2,(H,5,6)

> <PUBCHEM_IUPAC_INCHIKEY>
HNJBEVLQSNELDL-UHFFFAOYSA-N

> <PUBCHEM_XLOGP3>
-0.8

> <PUBCHEM_EXACT_MASS>
85.053

> <PUBCHEM_MOLECULAR_FORMULA>
C4H7NO

> <PUBCHEM_MOLECULAR_WEIGHT>
85.106

> <PUBCHEM_OPENEYE_CAN_SMILES>
C1CC(=O)NC1

> <PUBCHEM_OPENEYE_ISO_SMILES>
C1CC(=O)NC1

> <PUBCHEM_CACTVS_TPSA>
29.1

> <PUBCHEM_MONOISOTOPIC_WEIGHT>
85.053

> <PUBCHEM_TOTAL_CHARGE>
0

> <PUBCHEM_HEAVY_ATOM_COUNT>
6

> <PUBCHEM_ATOM_DEF_STEREO_COUNT>
0

> <PUBCHEM_ATOM_UDEF_STEREO_COUNT>
0

> <PUBCHEM_BOND_DEF_STEREO_COUNT>
0

> <PUBCHEM_BOND_UDEF_STEREO_COUNT>
0

> <PUBCHEM_ISOTOPIC_ATOM_COUNT>
0

> <PUBCHEM_COMPONENT_COUNT>
1

> <PUBCHEM_CACTVS_TAUTO_COUNT>
3

> <PUBCHEM_COORDINATE_TYPE>
1
5
255

$$$$
12665
  -OEChem-05151721052D

 16 16  0     0  0  0  0  0  0999 V2000
    2.0000   -0.6900    0.0000 O   0  0  0  0  0  0  0  0  0  0  0  0
    3.7320   -0.6900    0.0000 N   0  0  0  0  0  0  0  0  0  0  0  0
    4.5981    0.8100    0.0000 C   0  0  0  0  0  0  0  0  0  0  0  0
    3.7320    1.3100    0.0000 C   0  0  0  0  0  0  0  0  0  0  0  0
    4.5981   -0.1900    0.0000 C   0  0  0  0  0  0  0  0  0  0  0  0
    2.8660    0.8100    0.0000 C   0  0  0  0  0  0  0  0  0  0  0  0
    2.8660   -0.1900    0.0000 C   0  0  0  0  0  0  0  0  0  0  0  0
    5.2087    0.7023    0.0000 H   0  0  0  0  0  0  0  0  0  0  0  0
    4.8101    1.3926    0.0000 H   0  0  0  0  0  0  0  0  0  0  0  0
    4.1306    1.7850    0.0000 H   0  0  0  0  0  0  0  0  0  0  0  0
    3.3335    1.7850    0.0000 H   0  0  0  0  0  0  0  0  0  0  0  0
    4.8101   -0.7726    0.0000 H   0  0  0  0  0  0  0  0  0  0  0  0
    5.2087   -0.0823    0.0000 H   0  0  0  0  0  0  0  0  0  0  0  0
    2.6540    1.3926    0.0000 H   0  0  0  0  0  0  0  0  0  0  0  0
    2.2554    0.7023    0.0000 H   0  0  0  0  0  0  0  0  0  0  0  0
    3.7320   -1.3100    0.0000 H   0  0  0  0  0  0  0  0  0  0  0  0
  1  7  2  0  0  0  0
  2  5  1  0  0  0  0
  2  7  1  0  0  0  0
  2 16  1  0  0  0  0
  3  4  1  0  0  0  0
  3  5  1  0  0  0  0
  3  8  1  0  0  0  0
  3  9  1  0  0  0  0
  4  6  1  0  0  0  0
  4 10  1  0  0  0  0
  4 11  1  0  0  0  0
  5 12  1  0  0  0  0
  5 13  1  0  0  0  0
  6  7  1  0  0  0  0
  6 14  1  0  0  0  0
  6 15  1  0  0  0  0
M  END
> <PUBCHEM_COMPOUND_CID>
12665

> <PUBCHEM_COMPOUND_CANONICALIZED>
1

> <PUBCHEM_CACTVS_COMPLEXITY>
80.1

> <PUBCHEM_CACTVS_HBOND_ACCEPTOR>
1

> <PUBCHEM_CACTVS_HBOND_DONOR>
1

> <PUBCHEM_CACTVS_ROTATABLE_BOND>
0

> <PUBCHEM_CACTVS_SUBSKEYS>
AAADccBiIAAAAAAAAAAAAAAAAAAAAAAAAAAsAAAAAAAAAAAAAAAAHgAQAAAACADBgAQAAALAAAAIAAEQEAAAAAAAAAAAAIEIAAAAABIAgAAEAAAAFgCAAAAYAQAAAAAAAAAAAAAAAAAAAAAAAAAAAAAAAA==

> <PUBCHEM_IUPAC_OPENEYE_NAME>
piperidin-2-one

> <PUBCHEM_IUPAC_CAS_NAME>
2-piperidinone

> <PUBCHEM_IUPAC_NAME>
piperidin-2-one

> <PUBCHEM_IUPAC_SYSTEMATIC_NAME>
piperidin-2-one

> <PUBCHEM_IUPAC_TRADITIONAL_NAME>
2-piperidone

> <PUBCHEM_IUPAC_INCHI>
InChI=1S/C5H9NO/c7-5-3-1-2-4-6-5/h1-4H2,(H,6,7)

> <PUBCHEM_IUPAC_INCHIKEY>
XUWHAWMETYGRKB-UHFFFAOYSA-N

> <PUBCHEM_XLOGP3>
-0.5

> <PUBCHEM_EXACT_MASS>
99.068

> <PUBCHEM_MOLECULAR_FORMULA>
C5H9NO

> <PUBCHEM_MOLECULAR_WEIGHT>
99.133

> <PUBCHEM_OPENEYE_CAN_SMILES>
C1CCNC(=O)C1

> <PUBCHEM_OPENEYE_ISO_SMILES>
C1CCNC(=O)C1

> <PUBCHEM_CACTVS_TPSA>
29.1

> <PUBCHEM_MONOISOTOPIC_WEIGHT>
99.068

> <PUBCHEM_TOTAL_CHARGE>
0

> <PUBCHEM_HEAVY_ATOM_COUNT>
7

> <PUBCHEM_ATOM_DEF_STEREO_COUNT>
0

> <PUBCHEM_ATOM_UDEF_STEREO_COUNT>
0

> <PUBCHEM_BOND_DEF_STEREO_COUNT>
0

> <PUBCHEM_BOND_UDEF_STEREO_COUNT>
0

> <PUBCHEM_ISOTOPIC_ATOM_COUNT>
0

> <PUBCHEM_COMPONENT_COUNT>
1

> <PUBCHEM_CACTVS_TAUTO_COUNT>
3

> <PUBCHEM_COORDINATE_TYPE>
1
5
255

$$$$
